This file contains any messages produced by compilers while
running configure, to aid debugging if configure makes a mistake.

It was created by Specfem 2D configure 7.0.0, which was
generated by GNU Autoconf 2.69.  Invocation command line was

  $ ./configure FC=gfortran

## --------- ##
## Platform. ##
## --------- ##

hostname = AlicedeMacBook-Pro.local
uname -m = x86_64
uname -r = 14.5.0
uname -s = Darwin
uname -v = Darwin Kernel Version 14.5.0: Sun Jun  4 21:40:08 PDT 2017; root:xnu-2782.70.3~1/RELEASE_X86_64

/usr/bin/uname -p = i386
/bin/uname -X     = unknown

/bin/arch              = unknown
/usr/bin/arch -k       = unknown
/usr/convex/getsysinfo = unknown
/usr/bin/hostinfo      = Mach kernel version:
	 Darwin Kernel Version 14.5.0: Sun Jun  4 21:40:08 PDT 2017; root:xnu-2782.70.3~1/RELEASE_X86_64
Kernel configured for up to 4 processors.
2 processors are physically available.
4 processors are logically available.
Processor type: x86_64h (Intel x86-64h Haswell)
Processors active: 0 1 2 3
Primary memory available: 8.00 gigabytes
Default processor set: 228 tasks, 1024 threads, 4 processors
Load average: 1.68, Mach factor: 2.31
/bin/machine           = unknown
/usr/bin/oslevel       = unknown
/bin/universe          = unknown

PATH: /Users/alice/miniconda2/bin
PATH: /usr/local/bin
PATH: /usr/bin
PATH: /bin
PATH: /usr/sbin
PATH: /sbin
PATH: /opt/X11/bin
PATH: /Library/TeX/texbin


## ----------- ##
## Core tests. ##
## ----------- ##

configure:2610: checking build system type
configure:2624: result: x86_64-apple-darwin14.5.0
configure:2644: checking host system type
configure:2657: result: x86_64-apple-darwin14.5.0
configure:2941: checking for Fortran compiler version
configure:2950: gfortran --version >&5
GNU Fortran (GCC) 5.2.0
Copyright (C) 2015 Free Software Foundation, Inc.

GNU Fortran comes with NO WARRANTY, to the extent permitted by law.
You may redistribute copies of GNU Fortran
under the terms of the GNU General Public License.
For more information about these matters, see the file named COPYING

configure:2961: $? = 0
configure:2950: gfortran -v >&5
Using built-in specs.
COLLECT_GCC=gfortran
COLLECT_LTO_WRAPPER=/usr/local/gfortran/libexec/gcc/x86_64-apple-darwin14/5.2.0/lto-wrapper
Target: x86_64-apple-darwin14
Configured with: ../gcc-5.2.0/configure --prefix=/usr/local/gfortran --with-gmp=/Users/fx/devel/gcc/deps-static/x86_64 --enable-languages=c,c++,fortran,objc,obj-c++ --build=x86_64-apple-darwin14
Thread model: posix
gcc version 5.2.0 (GCC) 
configure:2961: $? = 0
configure:2950: gfortran -V >&5
gfortran: error: unrecognized command line option '-V'
gfortran: fatal error: no input files
compilation terminated.
configure:2961: $? = 1
configure:2950: gfortran -qversion >&5
gfortran: error: unrecognized command line option '-qversion'
gfortran: fatal error: no input files
compilation terminated.
configure:2961: $? = 1
configure:2976: checking whether the Fortran compiler works
configure:2998: gfortran    conftest.f  >&5
configure:3002: $? = 0
configure:3050: result: yes
configure:3053: checking for Fortran compiler default output file name
configure:3055: result: a.out
configure:3061: checking for suffix of executables
configure:3068: gfortran -o conftest    conftest.f  >&5
configure:3072: $? = 0
configure:3094: result: 
configure:3110: checking whether we are cross compiling
configure:3118: gfortran -o conftest    conftest.f  >&5
configure:3122: $? = 0
configure:3129: ./conftest
configure:3133: $? = 0
configure:3148: result: no
configure:3153: checking for suffix of object files
configure:3169: gfortran -c   conftest.f >&5
configure:3173: $? = 0
configure:3194: result: o
configure:3202: checking whether we are using the GNU Fortran compiler
configure:3215: gfortran -c   conftest.F >&5
configure:3215: $? = 0
configure:3224: result: yes
configure:3230: checking whether gfortran accepts -g
configure:3241: gfortran -c -g  conftest.f >&5
configure:3241: $? = 0
configure:3249: result: yes
configure:3288: running /bin/sh ./flags.guess
configure:3299: checking how to get verbose linking output from gfortran
configure:3309: gfortran -c -g -O2  conftest.f >&5
configure:3309: $? = 0
configure:3327: gfortran -o conftest -g -O2 -v conftest.f
Using built-in specs.
Target: x86_64-apple-darwin14
Thread model: posix
gcc version 5.2.0 (GCC) 
 /usr/local/gfortran/libexec/gcc/x86_64-apple-darwin14/5.2.0/f951 conftest.f -ffixed-form -fPIC -feliminate-unused-debug-symbols -quiet -dumpbase conftest.f -mmacosx-version-min=10.10.5 -mtune=core2 -auxbase conftest -g -O2 -version -fintrinsic-modules-path /usr/local/gfortran/lib/gcc/x86_64-apple-darwin14/5.2.0/finclude -o /var/folders/p6/3bzjy6nn3j74pm71xq1pc9vm0000gn/T//ccxfuiyq.s
GNU Fortran (GCC) version 5.2.0 (x86_64-apple-darwin14)
	compiled by GNU C version 5.2.0, GMP version 6.0.0, MPFR version 3.1.2, MPC version 1.0.3
GGC heuristics: --param ggc-min-expand=100 --param ggc-min-heapsize=131072
GNU Fortran2008 (GCC) version 5.2.0 (x86_64-apple-darwin14)
	compiled by GNU C version 5.2.0, GMP version 6.0.0, MPFR version 3.1.2, MPC version 1.0.3
GGC heuristics: --param ggc-min-expand=100 --param ggc-min-heapsize=131072
 as -arch x86_64 -force_cpusubtype_ALL -o /var/folders/p6/3bzjy6nn3j74pm71xq1pc9vm0000gn/T//ccj0l6Tv.o /var/folders/p6/3bzjy6nn3j74pm71xq1pc9vm0000gn/T//ccxfuiyq.s
Reading specs from /usr/local/gfortran/lib/gcc/x86_64-apple-darwin14/5.2.0/../../../libgfortran.spec
rename spec lib to liborig
 /usr/local/gfortran/libexec/gcc/x86_64-apple-darwin14/5.2.0/collect2 -dynamic -arch x86_64 -macosx_version_min 10.10.5 -weak_reference_mismatches non-weak -o conftest -L/usr/local/gfortran/lib/gcc/x86_64-apple-darwin14/5.2.0 -L/usr/local/gfortran/lib/gcc/x86_64-apple-darwin14/5.2.0/../../.. /var/folders/p6/3bzjy6nn3j74pm71xq1pc9vm0000gn/T//ccj0l6Tv.o -lgfortran -no_compact_unwind -lSystem -lgcc_ext.10.5 -lgcc -lquadmath -lm -lgcc_ext.10.5 -lgcc -lSystem -v -idsym -dsym
collect2 version 5.2.0
/usr/bin/ld -dynamic -arch x86_64 -macosx_version_min 10.10.5 -weak_reference_mismatches non-weak -o conftest -L/usr/local/gfortran/lib/gcc/x86_64-apple-darwin14/5.2.0 -L/usr/local/gfortran/lib/gcc/x86_64-apple-darwin14/5.2.0/../../.. /var/folders/p6/3bzjy6nn3j74pm71xq1pc9vm0000gn/T//ccj0l6Tv.o -lgfortran -no_compact_unwind -lSystem -lgcc_ext.10.5 -lgcc -lquadmath -lm -lgcc_ext.10.5 -lgcc -lSystem -v
@(#)PROGRAM:ld  PROJECT:ld64-242.2
configured to support archs: armv6 armv7 armv7s arm64 i386 x86_64 x86_64h armv6m armv7m armv7em
Library search paths:
	/usr/local/gfortran/lib/gcc/x86_64-apple-darwin14/5.2.0
	/usr/local/gfortran/lib
	/usr/lib
	/usr/local/lib
Framework search paths:
	/Library/Frameworks/
	/System/Library/Frameworks/
dsymutil conftest
configure:3410: result: -v
configure:3412: checking for Fortran libraries of gfortran
configure:3435: gfortran -o conftest -g -O2 -v conftest.f
Using built-in specs.
Target: x86_64-apple-darwin14
Thread model: posix
gcc version 5.2.0 (GCC) 
 /usr/local/gfortran/libexec/gcc/x86_64-apple-darwin14/5.2.0/f951 conftest.f -ffixed-form -fPIC -feliminate-unused-debug-symbols -quiet -dumpbase conftest.f -mmacosx-version-min=10.10.5 -mtune=core2 -auxbase conftest -g -O2 -version -fintrinsic-modules-path /usr/local/gfortran/lib/gcc/x86_64-apple-darwin14/5.2.0/finclude -o /var/folders/p6/3bzjy6nn3j74pm71xq1pc9vm0000gn/T//cclFcTJL.s
GNU Fortran (GCC) version 5.2.0 (x86_64-apple-darwin14)
	compiled by GNU C version 5.2.0, GMP version 6.0.0, MPFR version 3.1.2, MPC version 1.0.3
GGC heuristics: --param ggc-min-expand=100 --param ggc-min-heapsize=131072
GNU Fortran2008 (GCC) version 5.2.0 (x86_64-apple-darwin14)
	compiled by GNU C version 5.2.0, GMP version 6.0.0, MPFR version 3.1.2, MPC version 1.0.3
GGC heuristics: --param ggc-min-expand=100 --param ggc-min-heapsize=131072
 as -arch x86_64 -force_cpusubtype_ALL -o /var/folders/p6/3bzjy6nn3j74pm71xq1pc9vm0000gn/T//ccygdkfX.o /var/folders/p6/3bzjy6nn3j74pm71xq1pc9vm0000gn/T//cclFcTJL.s
Reading specs from /usr/local/gfortran/lib/gcc/x86_64-apple-darwin14/5.2.0/../../../libgfortran.spec
rename spec lib to liborig
 /usr/local/gfortran/libexec/gcc/x86_64-apple-darwin14/5.2.0/collect2 -dynamic -arch x86_64 -macosx_version_min 10.10.5 -weak_reference_mismatches non-weak -o conftest -L/usr/local/gfortran/lib/gcc/x86_64-apple-darwin14/5.2.0 -L/usr/local/gfortran/lib/gcc/x86_64-apple-darwin14/5.2.0/../../.. /var/folders/p6/3bzjy6nn3j74pm71xq1pc9vm0000gn/T//ccygdkfX.o -lgfortran -no_compact_unwind -lSystem -lgcc_ext.10.5 -lgcc -lquadmath -lm -lgcc_ext.10.5 -lgcc -lSystem -v -idsym -dsym
collect2 version 5.2.0
/usr/bin/ld -dynamic -arch x86_64 -macosx_version_min 10.10.5 -weak_reference_mismatches non-weak -o conftest -L/usr/local/gfortran/lib/gcc/x86_64-apple-darwin14/5.2.0 -L/usr/local/gfortran/lib/gcc/x86_64-apple-darwin14/5.2.0/../../.. /var/folders/p6/3bzjy6nn3j74pm71xq1pc9vm0000gn/T//ccygdkfX.o -lgfortran -no_compact_unwind -lSystem -lgcc_ext.10.5 -lgcc -lquadmath -lm -lgcc_ext.10.5 -lgcc -lSystem -v
@(#)PROGRAM:ld  PROJECT:ld64-242.2
configured to support archs: armv6 armv7 armv7s arm64 i386 x86_64 x86_64h armv6m armv7m armv7em
Library search paths:
	/usr/local/gfortran/lib/gcc/x86_64-apple-darwin14/5.2.0
	/usr/local/gfortran/lib
	/usr/lib
	/usr/local/lib
Framework search paths:
	/Library/Frameworks/
	/System/Library/Frameworks/
dsymutil conftest
configure:3631: result:  -L/usr/local/gfortran/lib/gcc/x86_64-apple-darwin14/5.2.0 -L/usr/local/gfortran/lib/gcc/x86_64-apple-darwin14/5.2.0/../../.. -lgfortran -lquadmath -lm
configure:3690: checking for gcc
configure:3706: found /usr/bin/gcc
configure:3717: result: gcc
configure:3946: checking for C compiler version
configure:3955: gcc --version >&5
Apple LLVM version 6.1.0 (clang-602.0.53) (based on LLVM 3.6.0svn)
Target: x86_64-apple-darwin14.5.0
Thread model: posix
Configured with: --prefix=/Applications/Xcode.app/Contents/Developer/usr --with-gxx-include-dir=/usr/include/c++/4.2.1
configure:3966: $? = 0
configure:3955: gcc -v >&5
Configured with: --prefix=/Applications/Xcode.app/Contents/Developer/usr --with-gxx-include-dir=/usr/include/c++/4.2.1
Apple LLVM version 6.1.0 (clang-602.0.53) (based on LLVM 3.6.0svn)
Target: x86_64-apple-darwin14.5.0
Thread model: posix
configure:3966: $? = 0
configure:3955: gcc -V >&5
clang: error: argument to '-V' is missing (expected 1 value)
clang: error: no input files
configure:3966: $? = 1
configure:3955: gcc -qversion >&5
clang: error: unknown argument: '-qversion'
clang: error: no input files
configure:3966: $? = 1
configure:3970: checking whether we are using the GNU C compiler
configure:3997: gcc -c   conftest.c >&5
configure:3997: $? = 0
configure:4006: result: yes
configure:4015: checking whether gcc accepts -g
configure:4043: gcc -c -g  conftest.c >&5
configure:4043: $? = 0
configure:4100: result: yes
configure:4117: checking for gcc option to accept ISO C89
configure:4188: gcc  -c -g -O2  conftest.c >&5
configure:4188: $? = 0
configure:4201: result: none needed
configure:4227: checking for dummy main to link with Fortran libraries
configure:4261: gcc -o conftest -g -O2   conftest.c   -L/usr/local/gfortran/lib/gcc/x86_64-apple-darwin14/5.2.0 -L/usr/local/gfortran/lib/gcc/x86_64-apple-darwin14/5.2.0/../../.. -lgfortran -lquadmath -lm >&5
configure:4261: $? = 0
configure:4306: result: none
configure:4339: checking for Fortran name-mangling scheme
configure:4352: gfortran -c -g -O2  conftest.f >&5
configure:4352: $? = 0
configure:4393: gcc -o conftest -g -O2   conftest.c cfortran_test.o   -L/usr/local/gfortran/lib/gcc/x86_64-apple-darwin14/5.2.0 -L/usr/local/gfortran/lib/gcc/x86_64-apple-darwin14/5.2.0/../../.. -lgfortran -lquadmath -lm >&5
Undefined symbols for architecture x86_64:
  "_foobar", referenced from:
      _main in conftest-8fcffc.o
     (maybe you meant: _foobar_)
ld: symbol(s) not found for architecture x86_64
clang: error: linker command failed with exit code 1 (use -v to see invocation)
configure:4393: $? = 1
configure: failed program was:
| /* confdefs.h */
| #define PACKAGE_NAME "Specfem 2D"
| #define PACKAGE_TARNAME "Specfem2D"
| #define PACKAGE_VERSION "7.0.0"
| #define PACKAGE_STRING "Specfem 2D 7.0.0"
| #define PACKAGE_BUGREPORT "see the wiki"
| #define PACKAGE_URL ""
| /* end confdefs.h.  */
| 
| /* Override any GCC internal prototype to avoid an error.
|    Use char because int might match the return type of a GCC
|    builtin and then its argument prototype would still apply.  */
| #ifdef __cplusplus
| extern "C"
| #endif
| char foobar ();
| #ifdef FC_DUMMY_MAIN
| #ifndef FC_DUMMY_MAIN_EQ_F77
| #  ifdef __cplusplus
|      extern "C"
| #  endif
|    int FC_DUMMY_MAIN() { return 1; }
| #endif
| #endif
| int
| main ()
| {
| return foobar ();
|   ;
|   return 0;
| }
configure:4393: gcc -o conftest -g -O2   conftest.c cfortran_test.o   -L/usr/local/gfortran/lib/gcc/x86_64-apple-darwin14/5.2.0 -L/usr/local/gfortran/lib/gcc/x86_64-apple-darwin14/5.2.0/../../.. -lgfortran -lquadmath -lm >&5
configure:4393: $? = 0
configure:4451: gcc -o conftest -g -O2   conftest.c cfortran_test.o   -L/usr/local/gfortran/lib/gcc/x86_64-apple-darwin14/5.2.0 -L/usr/local/gfortran/lib/gcc/x86_64-apple-darwin14/5.2.0/../../.. -lgfortran -lquadmath -lm >&5
configure:4451: $? = 0
configure:4493: result: lower case, underscore, no extra underscore
configure:4568: checking for Fortran flag to compile .f90 files
configure:4588: gfortran -c -g -O2  conftest.f90 >&5
configure:4588: $? = 0
configure:4597: result: none
configure:4622: checking for Fortran flag needed to accept free-form source
configure:4641: gfortran -c -g -O2  conftest.f90 >&5
configure:4641: $? = 0
configure:4650: result: none
configure:4675: checking for Fortran flag to compile preprocessed .F files
configure:4700: gfortran -c -g -O2  conftest.F >&5
configure:4700: $? = 0
configure:4710: gfortran -c -g -O2  conftest.F >&5
conftest.F:4:0:

 #include <ac_nonexistent.h>
 ^
Fatal Error: ac_nonexistent.h: No such file or directory
compilation terminated.
configure:4710: $? = 1
configure: failed program was:
|       program main
| 
| #if 1
| #include <ac_nonexistent.h>
|       choke me
| #endif
|       end
configure:4723: result: none
configure:4744: checking how to define symbols for preprocessed Fortran
configure:4766: gfortran -c -g -O2 -DFOOBAR -DZORK=42  conftest.F >&5
configure:4766: $? = 0
configure:4775: result: -D
configure:4795: checking for Fortran flag to compile preprocessed .F90 files
configure:4820: gfortran -c -g -O2  conftest.F90 >&5
configure:4820: $? = 0
configure:4830: gfortran -c -g -O2  conftest.F90 >&5
conftest.F90:4:0:

 #include <ac_nonexistent.h>
 ^
Fatal Error: ac_nonexistent.h: No such file or directory
compilation terminated.
configure:4830: $? = 1
configure: failed program was:
|       program main
| 
| #if 1
| #include <ac_nonexistent.h>
|       choke me
| #endif
|       end
configure:4843: result: none
configure:4912: checking for gcc
configure:4939: result: gcc
configure:5168: checking for C compiler version
configure:5177: gcc --version >&5
Apple LLVM version 6.1.0 (clang-602.0.53) (based on LLVM 3.6.0svn)
Target: x86_64-apple-darwin14.5.0
Thread model: posix
Configured with: --prefix=/Applications/Xcode.app/Contents/Developer/usr --with-gxx-include-dir=/usr/include/c++/4.2.1
configure:5188: $? = 0
configure:5177: gcc -v >&5
Configured with: --prefix=/Applications/Xcode.app/Contents/Developer/usr --with-gxx-include-dir=/usr/include/c++/4.2.1
Apple LLVM version 6.1.0 (clang-602.0.53) (based on LLVM 3.6.0svn)
Target: x86_64-apple-darwin14.5.0
Thread model: posix
configure:5188: $? = 0
configure:5177: gcc -V >&5
clang: error: argument to '-V' is missing (expected 1 value)
clang: error: no input files
configure:5188: $? = 1
configure:5177: gcc -qversion >&5
clang: error: unknown argument: '-qversion'
clang: error: no input files
configure:5188: $? = 1
configure:5192: checking whether we are using the GNU C compiler
configure:5228: result: yes
configure:5237: checking whether gcc accepts -g
configure:5322: result: yes
configure:5339: checking for gcc option to accept ISO C89
configure:5423: result: none needed
configure:5454: checking how to run the C preprocessor
configure:5485: gcc -E  conftest.c
configure:5485: $? = 0
configure:5499: gcc -E  conftest.c
conftest.c:11:10: fatal error: 'ac_nonexistent.h' file not found
#include <ac_nonexistent.h>
         ^
1 error generated.
configure:5499: $? = 1
configure: failed program was:
| /* confdefs.h */
| #define PACKAGE_NAME "Specfem 2D"
| #define PACKAGE_TARNAME "Specfem2D"
| #define PACKAGE_VERSION "7.0.0"
| #define PACKAGE_STRING "Specfem 2D 7.0.0"
| #define PACKAGE_BUGREPORT "see the wiki"
| #define PACKAGE_URL ""
| #define FC_FUNC(name,NAME) name ## _
| #define FC_FUNC_(name,NAME) name ## _
| /* end confdefs.h.  */
| #include <ac_nonexistent.h>
configure:5524: result: gcc -E
configure:5544: gcc -E  conftest.c
configure:5544: $? = 0
configure:5558: gcc -E  conftest.c
conftest.c:11:10: fatal error: 'ac_nonexistent.h' file not found
#include <ac_nonexistent.h>
         ^
1 error generated.
configure:5558: $? = 1
configure: failed program was:
| /* confdefs.h */
| #define PACKAGE_NAME "Specfem 2D"
| #define PACKAGE_TARNAME "Specfem2D"
| #define PACKAGE_VERSION "7.0.0"
| #define PACKAGE_STRING "Specfem 2D 7.0.0"
| #define PACKAGE_BUGREPORT "see the wiki"
| #define PACKAGE_URL ""
| #define FC_FUNC(name,NAME) name ## _
| #define FC_FUNC_(name,NAME) name ## _
| /* end confdefs.h.  */
| #include <ac_nonexistent.h>
configure:5587: checking for grep that handles long lines and -e
configure:5645: result: /usr/bin/grep
configure:5650: checking for egrep
configure:5712: result: /usr/bin/grep -E
configure:5717: checking for ANSI C header files
configure:5745: gcc -c -g -O2  conftest.c >&5
configure:5745: $? = 0
configure:5818: gcc -o conftest -g -O2   conftest.c  >&5
configure:5818: $? = 0
configure:5818: ./conftest
configure:5818: $? = 0
configure:5829: result: yes
configure:5842: checking for sys/types.h
configure:5842: gcc -c -g -O2  conftest.c >&5
configure:5842: $? = 0
configure:5842: result: yes
configure:5842: checking for sys/stat.h
configure:5842: gcc -c -g -O2  conftest.c >&5
configure:5842: $? = 0
configure:5842: result: yes
configure:5842: checking for stdlib.h
configure:5842: gcc -c -g -O2  conftest.c >&5
configure:5842: $? = 0
configure:5842: result: yes
configure:5842: checking for string.h
configure:5842: gcc -c -g -O2  conftest.c >&5
configure:5842: $? = 0
configure:5842: result: yes
configure:5842: checking for memory.h
configure:5842: gcc -c -g -O2  conftest.c >&5
configure:5842: $? = 0
configure:5842: result: yes
configure:5842: checking for strings.h
configure:5842: gcc -c -g -O2  conftest.c >&5
configure:5842: $? = 0
configure:5842: result: yes
configure:5842: checking for inttypes.h
configure:5842: gcc -c -g -O2  conftest.c >&5
configure:5842: $? = 0
configure:5842: result: yes
configure:5842: checking for stdint.h
configure:5842: gcc -c -g -O2  conftest.c >&5
configure:5842: $? = 0
configure:5842: result: yes
configure:5842: checking for unistd.h
configure:5842: gcc -c -g -O2  conftest.c >&5
configure:5842: $? = 0
configure:5842: result: yes
configure:5854: checking emmintrin.h usability
configure:5854: gcc -c -g -O2  conftest.c >&5
configure:5854: $? = 0
configure:5854: result: yes
configure:5854: checking emmintrin.h presence
configure:5854: gcc -E  conftest.c
configure:5854: $? = 0
configure:5854: result: yes
configure:5854: checking for emmintrin.h
configure:5854: result: yes
configure:5862: checking xmmintrin.h usability
configure:5862: gcc -c -g -O2  conftest.c >&5
configure:5862: $? = 0
configure:5862: result: yes
configure:5862: checking xmmintrin.h presence
configure:5862: gcc -E  conftest.c
configure:5862: $? = 0
configure:5862: result: yes
configure:5862: checking for xmmintrin.h
configure:5862: result: yes
configure:5871: checking err.h usability
configure:5871: gcc -c -g -O2  conftest.c >&5
configure:5871: $? = 0
configure:5871: result: yes
configure:5871: checking err.h presence
configure:5871: gcc -E  conftest.c
configure:5871: $? = 0
configure:5871: result: yes
configure:5871: checking for err.h
configure:5871: result: yes
configure:5948: checking for scotchfarchinit  in -lscotch
configure:5960: gfortran -o conftest -g -O2  -L/usr/lib  conftest.F90 -lscotch -lscotcherr  >&5
configure:5960: $? = 0
configure:5969: result: yes
configure:5990: checking whether Scotch is usable
configure:6001: result: yes
configure:6613: result: SCOTCH is enabled
configure:6668: checking Fortran 90 module extension
configure:6690: gfortran -c -g -O2  conftest.F90 >&5
configure:6690: $? = 0
configure:6706: result: mod
configure:6715: checking Fortran 90 module inclusion flag
configure:6737: gfortran -c -g -O2  conftest.F90 >&5
configure:6737: $? = 0
configure:6751: gfortran -c -g -O2 -Mconftest.dir -Mconftest.dir  conftest.F90 >&5
gfortran: error: unrecognized command line option '-Mconftest.dir'
gfortran: error: unrecognized command line option '-Mconftest.dir'
configure:6751: $? = 1
configure: failed program was:
| 
|       program main
|       use conftest_module
|       call conftest_routine
|       end program
configure:6751: gfortran -c -g -O2 -Iconftest.dir -Iconftest.dir  conftest.F90 >&5
configure:6751: $? = 0
configure:6771: result: -I
configure:6786: checking Fortran 90 module output flag
configure:6814: gfortran -c -g -O2 -Jsub  conftest.F90 >&5
configure:6814: $? = 0
configure:6823: gfortran -c -g -O2 -Jsub  conftest.F90 >&5
f951: Warning: Nonexistent include directory 'sub' [-Wmissing-include-dirs]
configure:6823: $? = 0
configure:6844: result: -J
configure:6930: checking for g++
configure:6946: found /usr/bin/g++
configure:6957: result: g++
configure:6984: checking for C++ compiler version
configure:6993: g++ --version >&5
Apple LLVM version 6.1.0 (clang-602.0.53) (based on LLVM 3.6.0svn)
Target: x86_64-apple-darwin14.5.0
Thread model: posix
Configured with: --prefix=/Applications/Xcode.app/Contents/Developer/usr --with-gxx-include-dir=/usr/include/c++/4.2.1
configure:7004: $? = 0
configure:6993: g++ -v >&5
Configured with: --prefix=/Applications/Xcode.app/Contents/Developer/usr --with-gxx-include-dir=/usr/include/c++/4.2.1
Apple LLVM version 6.1.0 (clang-602.0.53) (based on LLVM 3.6.0svn)
Target: x86_64-apple-darwin14.5.0
Thread model: posix
configure:7004: $? = 0
configure:6993: g++ -V >&5
clang: error: argument to '-V' is missing (expected 1 value)
clang: error: no input files
configure:7004: $? = 1
configure:6993: g++ -qversion >&5
clang: error: unknown argument: '-qversion'
clang: error: no input files
configure:7004: $? = 1
configure:7008: checking whether we are using the GNU C++ compiler
configure:7035: g++ -c   conftest.cpp >&5
configure:7035: $? = 0
configure:7044: result: yes
configure:7053: checking whether g++ accepts -g
configure:7081: g++ -c -g  conftest.cpp >&5
configure:7081: $? = 0
configure:7138: result: yes
configure:7167: checking how to run the C++ preprocessor
configure:7194: g++ -E  conftest.cpp
configure:7194: $? = 0
configure:7208: g++ -E  conftest.cpp
conftest.cpp:25:10: fatal error: 'ac_nonexistent.h' file not found
#include <ac_nonexistent.h>
         ^
1 error generated.
configure:7208: $? = 1
configure: failed program was:
| /* confdefs.h */
| #define PACKAGE_NAME "Specfem 2D"
| #define PACKAGE_TARNAME "Specfem2D"
| #define PACKAGE_VERSION "7.0.0"
| #define PACKAGE_STRING "Specfem 2D 7.0.0"
| #define PACKAGE_BUGREPORT "see the wiki"
| #define PACKAGE_URL ""
| #define FC_FUNC(name,NAME) name ## _
| #define FC_FUNC_(name,NAME) name ## _
| #define STDC_HEADERS 1
| #define HAVE_SYS_TYPES_H 1
| #define HAVE_SYS_STAT_H 1
| #define HAVE_STDLIB_H 1
| #define HAVE_STRING_H 1
| #define HAVE_MEMORY_H 1
| #define HAVE_STRINGS_H 1
| #define HAVE_INTTYPES_H 1
| #define HAVE_STDINT_H 1
| #define HAVE_UNISTD_H 1
| #define HAVE_EMMINTRIN 1
| #define HAVE_XMMINTRIN 1
| #define HAVE_ERR 1
| #define HAVE_SCOTCH 1
| /* end confdefs.h.  */
| #include <ac_nonexistent.h>
configure:7233: result: g++ -E
configure:7253: g++ -E  conftest.cpp
configure:7253: $? = 0
configure:7267: g++ -E  conftest.cpp
conftest.cpp:25:10: fatal error: 'ac_nonexistent.h' file not found
#include <ac_nonexistent.h>
         ^
1 error generated.
configure:7267: $? = 1
configure: failed program was:
| /* confdefs.h */
| #define PACKAGE_NAME "Specfem 2D"
| #define PACKAGE_TARNAME "Specfem2D"
| #define PACKAGE_VERSION "7.0.0"
| #define PACKAGE_STRING "Specfem 2D 7.0.0"
| #define PACKAGE_BUGREPORT "see the wiki"
| #define PACKAGE_URL ""
| #define FC_FUNC(name,NAME) name ## _
| #define FC_FUNC_(name,NAME) name ## _
| #define STDC_HEADERS 1
| #define HAVE_SYS_TYPES_H 1
| #define HAVE_SYS_STAT_H 1
| #define HAVE_STDLIB_H 1
| #define HAVE_STRING_H 1
| #define HAVE_MEMORY_H 1
| #define HAVE_STRINGS_H 1
| #define HAVE_INTTYPES_H 1
| #define HAVE_STDINT_H 1
| #define HAVE_UNISTD_H 1
| #define HAVE_EMMINTRIN 1
| #define HAVE_XMMINTRIN 1
| #define HAVE_ERR 1
| #define HAVE_SCOTCH 1
| /* end confdefs.h.  */
| #include <ac_nonexistent.h>
configure:7636: building from git repository
configure:7826: creating ./config.status

## ---------------------- ##
## Running config.status. ##
## ---------------------- ##

This file was extended by Specfem 2D config.status 7.0.0, which was
generated by GNU Autoconf 2.69.  Invocation command line was

  CONFIG_FILES    = 
  CONFIG_HEADERS  = 
  CONFIG_LINKS    = 
  CONFIG_COMMANDS = 
  $ ./config.status 

on AlicedeMacBook-Pro.local

config.status:902: creating Makefile
config.status:902: creating setup/constants.h
config.status:902: creating setup/constants_tomography.h
config.status:902: creating setup/precision.h
config.status:902: creating setup/config.fh
config.status:902: creating DATA/Par_file
config.status:902: creating DATA/SOURCE
config.status:902: creating setup/config.h
config.status:1072: setup/config.h is unchanged
config.status:1086: executing bin commands
config.status:1086: executing obj commands
config.status:1086: executing DATA commands
config.status:1086: executing OUTPUT_FILES commands
configure:9013: result: 
configure:9018: result: 
configure:9020: result: ./configure has completed and set up a default configuration to build.
configure:9022: result: 
configure:9024: result: You may wish to modify the following files before running a simulation:
configure:9026: result:   DATA/Par_file           Set parameters affecting the simulation.
configure:9028: result:   DATA/SOURCE             Set the source parameters before running the solver.
configure:9030: result: 

## ---------------- ##
## Cache variables. ##
## ---------------- ##

ac_cv_build=x86_64-apple-darwin14.5.0
ac_cv_c_compiler_gnu=yes
ac_cv_cxx_compiler_gnu=yes
ac_cv_env_CCC_set=
ac_cv_env_CCC_value=
ac_cv_env_CC_set=
ac_cv_env_CC_value=
ac_cv_env_CFLAGS_set=
ac_cv_env_CFLAGS_value=
ac_cv_env_CPPFLAGS_set=
ac_cv_env_CPPFLAGS_value=
ac_cv_env_CPP_set=
ac_cv_env_CPP_value=
ac_cv_env_CUDA_FLAGS_set=
ac_cv_env_CUDA_FLAGS_value=
ac_cv_env_CUDA_INC_set=
ac_cv_env_CUDA_INC_value=
ac_cv_env_CUDA_LIB_set=
ac_cv_env_CUDA_LIB_value=
ac_cv_env_CXXCPP_set=
ac_cv_env_CXXCPP_value=
ac_cv_env_CXXFLAGS_set=
ac_cv_env_CXXFLAGS_value=
ac_cv_env_CXX_set=
ac_cv_env_CXX_value=
ac_cv_env_FCFLAGS_set=
ac_cv_env_FCFLAGS_value=
ac_cv_env_FC_set=set
ac_cv_env_FC_value=gfortran
ac_cv_env_FLAGS_CHECK_set=
ac_cv_env_FLAGS_CHECK_value=
ac_cv_env_LDFLAGS_set=
ac_cv_env_LDFLAGS_value=
ac_cv_env_LIBS_set=
ac_cv_env_LIBS_value=
ac_cv_env_LOCAL_PATH_IS_ALSO_GLOBAL_set=
ac_cv_env_LOCAL_PATH_IS_ALSO_GLOBAL_value=
ac_cv_env_MPICC_set=
ac_cv_env_MPICC_value=
ac_cv_env_MPIFC_set=
ac_cv_env_MPIFC_value=
ac_cv_env_MPILIBS_set=
ac_cv_env_MPILIBS_value=
ac_cv_env_MPI_INC_set=
ac_cv_env_MPI_INC_value=
ac_cv_env_NVCC_set=
ac_cv_env_NVCC_value=
ac_cv_env_SCOTCH_DIR_set=
ac_cv_env_SCOTCH_DIR_value=
ac_cv_env_SCOTCH_INCLUDEDIR_set=
ac_cv_env_SCOTCH_INCLUDEDIR_value=
ac_cv_env_SCOTCH_LIBDIR_set=
ac_cv_env_SCOTCH_LIBDIR_value=
ac_cv_env_USE_BUNDLED_SCOTCH_set=
ac_cv_env_USE_BUNDLED_SCOTCH_value=
ac_cv_env_YACC_set=
ac_cv_env_YACC_value=
ac_cv_env_YFLAGS_set=
ac_cv_env_YFLAGS_value=
ac_cv_env_build_alias_set=
ac_cv_env_build_alias_value=
ac_cv_env_host_alias_set=
ac_cv_env_host_alias_value=
ac_cv_env_target_alias_set=
ac_cv_env_target_alias_value=
ac_cv_fc_compiler_gnu=yes
ac_cv_fc_dummy_main=none
ac_cv_fc_freeform=none
ac_cv_fc_libs=' -L/usr/local/gfortran/lib/gcc/x86_64-apple-darwin14/5.2.0 -L/usr/local/gfortran/lib/gcc/x86_64-apple-darwin14/5.2.0/../../.. -lgfortran -lquadmath -lm'
ac_cv_fc_mangling='lower case, underscore, no extra underscore'
ac_cv_fc_module_ext=mod
ac_cv_fc_module_flag=-I
ac_cv_fc_module_output_flag=-J
ac_cv_fc_pp_define=-D
ac_cv_fc_pp_srcext_F90=none
ac_cv_fc_pp_srcext_F=none
ac_cv_fc_srcext_f90=none
ac_cv_fortran_dummy_main=none
ac_cv_header_emmintrin_h=yes
ac_cv_header_err_h=yes
ac_cv_header_inttypes_h=yes
ac_cv_header_memory_h=yes
ac_cv_header_stdc=yes
ac_cv_header_stdint_h=yes
ac_cv_header_stdlib_h=yes
ac_cv_header_string_h=yes
ac_cv_header_strings_h=yes
ac_cv_header_sys_stat_h=yes
ac_cv_header_sys_types_h=yes
ac_cv_header_unistd_h=yes
ac_cv_header_xmmintrin_h=yes
ac_cv_host=x86_64-apple-darwin14.5.0
ac_cv_lib_scotch_scotchfarchinit_=yes
ac_cv_objext=o
ac_cv_path_EGREP='/usr/bin/grep -E'
ac_cv_path_GREP=/usr/bin/grep
ac_cv_prog_CPP='gcc -E'
ac_cv_prog_CXXCPP='g++ -E'
ac_cv_prog_ac_ct_CC=gcc
ac_cv_prog_ac_ct_CXX=g++
ac_cv_prog_cc_c89=
ac_cv_prog_cc_g=yes
ac_cv_prog_cxx_g=yes
ac_cv_prog_fc_g=yes
ac_cv_prog_fc_v=-v

## ----------------- ##
## Output variables. ##
## ----------------- ##

CC='gcc'
CFLAGS='-g -O2'
COND_CUDA5_FALSE=''
COND_CUDA5_TRUE='#'
COND_CUDA6_FALSE=''
COND_CUDA6_TRUE='#'
COND_CUDA7_FALSE=''
COND_CUDA7_TRUE='#'
COND_CUDA8_FALSE=''
COND_CUDA8_TRUE='#'
COND_CUDA9_FALSE=''
COND_CUDA9_TRUE='#'
COND_CUDA_FALSE=''
COND_CUDA_PLUS_FALSE=''
COND_CUDA_PLUS_TRUE='#'
COND_CUDA_TRUE='#'
COND_DEBUG_FALSE=''
COND_DEBUG_TRUE='#'
COND_MPI_FALSE=''
COND_MPI_TRUE='#'
COND_SCOTCH_FALSE='#'
COND_SCOTCH_TRUE=''
CPP='gcc -E'
CPPFLAGS=''
CUDA_CPPFLAGS=''
CUDA_FLAGS=''
CUDA_INC=''
CUDA_LDFLAGS=''
CUDA_LIB=''
CUDA_LIBS=''
CUSTOM_MPI_TYPE='MPI_REAL'
CUSTOM_REAL='SIZE_REAL'
CXX='g++'
CXXCPP='g++ -E'
CXXFLAGS='-g -O2'
DEFS='-DHAVE_CONFIG_H'
ECHO_C='\c'
ECHO_N=''
ECHO_T=''
EGREP='/usr/bin/grep -E'
EXEEXT=''
FC='gfortran'
FCENV=''
FCFLAGS='-g -O2'
FCFLAGS_F90=''
FCFLAGS_F=''
FCFLAGS_f90='-J./obj -I./obj -I. '
FCLIBS=' -L/usr/local/gfortran/lib/gcc/x86_64-apple-darwin14/5.2.0 -L/usr/local/gfortran/lib/gcc/x86_64-apple-darwin14/5.2.0/../../.. -lgfortran -lquadmath -lm'
FC_DEFINE='-D'
FC_MODDIR='./obj'
FC_MODEXT='mod'
FC_MODINC='-I'
FC_MODOUT='-J'
FLAGS_CHECK='-std=f2008 -fimplicit-none -frange-check -fmax-errors=10 -pedantic -pedantic-errors -Waliasing -Wampersand -Wcharacter-truncation -Wline-truncation -Wsurprising -Wno-tabs -Wunderflow -ffpe-trap=invalid,zero,overflow -Wunused -Werror -O3 -finline-functions -DFORCE_VECTORIZATION'
GIT_VERSION_DEPS='./.git/logs/HEAD'
GREP='/usr/bin/grep'
LDFLAGS=''
LEX=''
LEXLIB=''
LEX_OUTPUT_ROOT=''
LIBOBJS=''
LIBS=''
LOCAL_PATH_IS_ALSO_GLOBAL='true'
LTLIBOBJS=''
MPICC='mpicc'
MPIFC='mpif90'
MPILIBS=''
MPI_INC=''
MPI_INCLUDES=''
NVCC=''
NVCC_PROG=''
OBJEXT='o'
PACKAGE_BUGREPORT='see the wiki'
PACKAGE_NAME='Specfem 2D'
PACKAGE_STRING='Specfem 2D 7.0.0'
PACKAGE_TARNAME='Specfem2D'
PACKAGE_URL=''
PACKAGE_VERSION='7.0.0'
PATH_SEPARATOR=':'
PTHREAD_CC=''
PTHREAD_CFLAGS=''
PTHREAD_LIBS=''
SCOTCH_DIR=''
SCOTCH_INCLUDEDIR='/usr/include/scotch'
SCOTCH_LIBDIR='/usr/lib'
SHELL='/bin/sh'
USE_BUNDLED_SCOTCH='0'
YACC=''
YFLAGS=''
ac_ct_CC='gcc'
ac_ct_CXX='g++'
ac_ct_FC=''
ac_empty=''
acx_pthread_config=''
bindir='${exec_prefix}/bin'
build='x86_64-apple-darwin14.5.0'
build_alias=''
build_cpu='x86_64'
build_os='darwin14.5.0'
build_vendor='apple'
datadir='${datarootdir}'
datarootdir='${prefix}/share'
docdir='${datarootdir}/doc/${PACKAGE_TARNAME}'
dvidir='${docdir}'
exec_prefix='${prefix}'
host='x86_64-apple-darwin14.5.0'
host_alias=''
host_cpu='x86_64'
host_os='darwin14.5.0'
host_vendor='apple'
htmldir='${docdir}'
includedir='${prefix}/include'
infodir='${datarootdir}/info'
libdir='${exec_prefix}/lib'
libexecdir='${exec_prefix}/libexec'
localedir='${datarootdir}/locale'
localstatedir='${prefix}/var'
mandir='${datarootdir}/man'
oldincludedir='/usr/include'
pdfdir='${docdir}'
prefix='/usr/local'
program_transform_name='s,x,x,'
psdir='${docdir}'
sbindir='${exec_prefix}/sbin'
sharedstatedir='${prefix}/com'
srcdir='.'
sysconfdir='${prefix}/etc'
target_alias=''

## ----------- ##
## confdefs.h. ##
## ----------- ##

/* confdefs.h */
#define PACKAGE_NAME "Specfem 2D"
#define PACKAGE_TARNAME "Specfem2D"
#define PACKAGE_VERSION "7.0.0"
#define PACKAGE_STRING "Specfem 2D 7.0.0"
#define PACKAGE_BUGREPORT "see the wiki"
#define PACKAGE_URL ""
#define FC_FUNC(name,NAME) name ## _
#define FC_FUNC_(name,NAME) name ## _
#define STDC_HEADERS 1
#define HAVE_SYS_TYPES_H 1
#define HAVE_SYS_STAT_H 1
#define HAVE_STDLIB_H 1
#define HAVE_STRING_H 1
#define HAVE_MEMORY_H 1
#define HAVE_STRINGS_H 1
#define HAVE_INTTYPES_H 1
#define HAVE_STDINT_H 1
#define HAVE_UNISTD_H 1
#define HAVE_EMMINTRIN 1
#define HAVE_XMMINTRIN 1
#define HAVE_ERR 1
#define HAVE_SCOTCH 1

configure: exit 0
